Questionable use of curly braces in "b1 n002 0 i={(30*(exp(v(n001)-19)))}"
    Error: undefined symbol in: "(30*(exp([v](n001)-19)))"
Circuit: * E:\Projects\Airsoft\OpenEFCS_private\Hardware\TinkerFET\Inrush.asc

.OP point found by inspection.

Date: Fri May 12 20:22:44 2023
Total elapsed time: 5.241 seconds.

tnom = 27
temp = 27
method = modified trap
totiter = 124571
traniter = 124571
tranpoints = 62165
accept = 61632
rejected = 533
matrix size = 52
fillins = 0
solver = Normal
Avg thread counts: 1.0/3.0/1.0/1.0
Matrix Compiler1: 1.49 KB object code size  0.2/0.2/[0.1]
Matrix Compiler2: 3.17 KB object code size  0.1/0.3/[0.1]

